
 OpenBabel06271817323D

 19 19  0  0  0  0  0  0  0  0999 V2000
    0.8705   -0.0938    0.0037 C   0  0  0  0  0  0  0  0  0  0  0  0
    2.9913   -1.4599    0.0562 C   0  0  0  0  0  0  0  0  0  0  0  0
    3.6915    1.8937   -2.9686 C   0  0  0  0  0  0  0  0  0  0  0  0
    3.6448    1.7342   -1.5639 C   0  0  0  0  0  0  0  0  0  0  0  0
    2.9420    0.8679   -3.4929 C   0  0  0  0  0  0  0  0  0  0  0  0
    2.8604    0.6245   -1.3154 C   0  0  0  0  0  0  0  0  0  0  0  0
    2.3977   -0.0565   -0.0656 C   0  0  0  0  0  0  0  0  0  0  0  0
    2.8756    0.7270    1.0347 O   0  0  0  0  0  0  0  0  0  0  0  0
    2.4378    0.0900   -2.5021 O   0  0  0  0  0  0  0  0  0  0  0  0
    0.4388   -0.6870   -0.8097 H   0  0  0  0  0  0  0  0  0  0  0  0
    0.4510    0.9179   -0.0541 H   0  0  0  0  0  0  0  0  0  0  0  0
    0.5316   -0.5179    0.9558 H   0  0  0  0  0  0  0  0  0  0  0  0
    2.6690   -2.1133   -0.7616 H   0  0  0  0  0  0  0  0  0  0  0  0
    2.6985   -1.9258    1.0043 H   0  0  0  0  0  0  0  0  0  0  0  0
    4.0872   -1.4254    0.0536 H   0  0  0  0  0  0  0  0  0  0  0  0
    4.2035    2.6628   -3.5285 H   0  0  0  0  0  0  0  0  0  0  0  0
    4.1111    2.3530   -0.8093 H   0  0  0  0  0  0  0  0  0  0  0  0
    2.6799    0.5712   -4.4991 H   0  0  0  0  0  0  0  0  0  0  0  0
    2.5707    0.2957    1.8500 H   0  0  0  0  0  0  0  0  0  0  0  0
  1  7  1  0  0  0  0
  1 10  1  0  0  0  0
  1 11  1  0  0  0  0
  1 12  1  0  0  0  0
  2  7  1  0  0  0  0
  2 13  1  0  0  0  0
  2 14  1  0  0  0  0
  2 15  1  0  0  0  0
  3  4  1  0  0  0  0
  3  5  2  0  0  0  0
  3 16  1  0  0  0  0
  4  6  2  0  0  0  0
  4 17  1  0  0  0  0
  5  9  1  0  0  0  0
  5 18  1  0  0  0  0
  6  7  1  0  0  0  0
  6  9  1  0  0  0  0
  7  8  1  0  0  0  0
  8 19  1  0  0  0  0
M  END
