16
C8H8
C          1.08950       -0.36970        0.65710
C          0.87420       -0.51800       -0.85040
C          0.32020        0.90690       -0.91130
C          0.53560        1.05520        0.59620
C         -0.87430        0.51790        0.85040
C         -1.08970        0.36960       -0.65710
C         -0.53570       -1.05520       -0.59610
C         -0.32030       -0.90700        0.91140
H          1.98670       -0.67290        1.19680
H          1.59430       -0.94300       -1.54950
H          0.58510        1.65290       -1.66060
H          0.97750        1.92300        1.08570
H         -1.59340        0.94530        1.54920
H         -1.98580        0.67520       -1.19720
H         -0.97610       -1.92260       -1.08780
H         -0.58280       -1.65410        1.66040
